
#######################################################################
#
#                 Cambridge Crystallographic Data Centre
#                                CCDC 
#
#######################################################################
#
# If this CIF has been generated from an entry in the Cambridge 
# Structural Database, then it will include bibliographic, chemical, 
# crystal, experimental, refinement or atomic coordinate data resulting 
# from the CCDC's data processing and validation procedures.
#
#######################################################################

data_OJIGOG
_symmetry_cell_setting           triclinic
_symmetry_space_group_name_H-M   'P -1'
_symmetry_Int_Tables_number      2
_space_group_name_Hall           '-P 1'
loop_
_symmetry_equiv_pos_site_id
_symmetry_equiv_pos_as_xyz
1 x,y,z
2 -x,-y,-z
_cell_length_a                   5.2513(8)
_cell_length_b                   9.5848(13)
_cell_length_c                   12.2752(18)
_cell_angle_alpha                111.548(11)
_cell_angle_beta                 91.115(12)
_cell_angle_gamma                99.923(11)
_cell_volume                     563.752
loop_
_atom_site_label
_atom_site_type_symbol
_atom_site_fract_x
_atom_site_fract_y
_atom_site_fract_z
_atom_site_U_iso_or_equiv
_atom_site_thermal_displace_type
C1 C 0.2476(4) 0.1872(2) 0.3354(2) 0.0209 Uani
C2 C 0.0709(4) 0.0384(2) 0.3135(2) 0.0202 Uani
C3 C -0.1469(5) 0.0318(2) 0.3756(2) 0.0238 Uani
H1 H -0.188971 0.123227 0.429660 0.0290 Uiso
C4 C -0.3025(5) -0.1084(2) 0.3583(2) 0.0267 Uani
H2 H -0.452393 -0.112598 0.399912 0.0320 Uiso
C5 C -0.2406(5) -0.2422(2) 0.2807(2) 0.0282 Uani
H3 H -0.347179 -0.338039 0.269548 0.0340 Uiso
C6 C -0.0240(5) -0.2362(2) 0.2196(2) 0.0279 Uani
H4 H 0.019521 -0.328201 0.167136 0.0330 Uiso
C7 C 0.1301(5) -0.0970(2) 0.2344(2) 0.0247 Uani
H5 H 0.276641 -0.093513 0.190588 0.0300 Uiso
C8 C 0.3828(5) 0.2139(2) 0.2376(2) 0.0220 Uani
C9 C 0.2542(5) 0.1582(2) 0.1248(2) 0.0248 Uani
H6 H 0.086654 0.094964 0.108877 0.0300 Uiso
C10 C 0.3712(5) 0.1953(3) 0.0364(2) 0.0329 Uani
H7 H 0.282843 0.157918 -0.040053 0.0400 Uiso
C11 C 0.6151(5) 0.2862(3) 0.0585(2) 0.0330 Uani
H8 H 0.692518 0.313158 -0.002074 0.0400 Uiso
C12 C 0.7472(5) 0.3381(2) 0.1687(2) 0.0278 Uani
H9 H 0.917070 0.398549 0.183286 0.0330 Uiso
C13 C 0.6320(5) 0.3020(2) 0.2581(2) 0.0229 Uani
H10 H 0.723412 0.337659 0.333705 0.0270 Uiso
N1 N 0.2859(4) 0.2943(2) 0.43818(18) 0.0222 Uani
Cu1 Cu 0.500000 0.500000 0.500000 0.0210 Uani
Cl1 Cl 0.22967(11) 0.58487(6) 0.40117(5) 0.0258 Uani
H11 H 0.201(5) 0.272(3) 0.489(2) 0.0300 Uiso
C1A C 0.7524(4) 0.8128(2) 0.6646(2) 0.0209 Uani
C2A C 0.9291(4) 0.9616(2) 0.6865(2) 0.0202 Uani
C3A C 1.1469(5) 0.9682(2) 0.6244(2) 0.0238 Uani
H1A H 1.188971 0.876773 0.570340 0.0290 Uiso
C4A C 1.3025(5) 1.1084(2) 0.6417(2) 0.0267 Uani
H2A H 1.452393 1.112598 0.600088 0.0320 Uiso
C5A C 1.2406(5) 1.2422(2) 0.7193(2) 0.0282 Uani
H3A H 1.347179 1.338039 0.730452 0.0340 Uiso
C6A C 1.0240(5) 1.2362(2) 0.7804(2) 0.0279 Uani
H4A H 0.980479 1.328201 0.832864 0.0330 Uiso
C7A C 0.8699(5) 1.0970(2) 0.7656(2) 0.0247 Uani
H5A H 0.723359 1.093513 0.809412 0.0300 Uiso
C8A C 0.6172(5) 0.7861(2) 0.7624(2) 0.0220 Uani
C9A C 0.7458(5) 0.8418(2) 0.8752(2) 0.0248 Uani
H6A H 0.913346 0.905036 0.891123 0.0300 Uiso
C10A C 0.6288(5) 0.8047(3) 0.9636(2) 0.0329 Uani
H7A H 0.717157 0.842082 1.040053 0.0400 Uiso
C11A C 0.3849(5) 0.7138(3) 0.9415(2) 0.0330 Uani
H8A H 0.307482 0.686842 1.002074 0.0400 Uiso
C12A C 0.2528(5) 0.6619(2) 0.8313(2) 0.0278 Uani
H9A H 0.082930 0.601451 0.816714 0.0330 Uiso
C13A C 0.3680(5) 0.6980(2) 0.7419(2) 0.0229 Uani
H10A H 0.276588 0.662341 0.666295 0.0270 Uiso
N1A N 0.7141(4) 0.7057(2) 0.56182(18) 0.0222 Uani
Cl1A Cl 0.77033(11) 0.41513(6) 0.59883(5) 0.0258 Uani
H11A H 0.799(5) 0.728(3) 0.511(2) 0.0300 Uiso
loop_
_atom_site_aniso_label
_atom_site_aniso_U_11
_atom_site_aniso_U_22
_atom_site_aniso_U_33
_atom_site_aniso_U_23
_atom_site_aniso_U_13
_atom_site_aniso_U_12
C1 0.0216(13) 0.0177(10) 0.0242(12) 0.0086(9) 0.0000(11) 0.0045(9)
C2 0.0210(12) 0.0182(10) 0.0224(12) 0.0097(9) -0.0001(11) 0.0023(9)
C3 0.0291(14) 0.0203(10) 0.0237(13) 0.0098(10) 0.0022(11) 0.0060(10)
C4 0.0242(13) 0.0288(12) 0.0306(14) 0.0167(11) 0.0042(11) 0.0019(10)
C5 0.0344(15) 0.0193(11) 0.0309(14) 0.0130(10) 0.0008(12) -0.0027(10)
C6 0.0372(15) 0.0176(11) 0.0280(13) 0.0079(10) 0.0016(12) 0.0048(10)
C7 0.0244(13) 0.0249(11) 0.0267(13) 0.0118(10) 0.0050(11) 0.0046(10)
C8 0.0258(13) 0.0159(10) 0.0255(13) 0.0083(9) 0.0051(11) 0.0057(9)
C9 0.0271(14) 0.0210(11) 0.0240(13) 0.0076(10) 0.0008(11) 0.0011(10)
C10 0.0402(16) 0.0318(13) 0.0256(14) 0.0109(11) 0.0020(12) 0.0036(12)
C11 0.0427(17) 0.0302(12) 0.0283(14) 0.0145(11) 0.0128(13) 0.0039(12)
C12 0.0252(14) 0.0246(11) 0.0330(14) 0.0104(11) 0.0092(12) 0.0034(10)
C13 0.0247(13) 0.0193(10) 0.0237(13) 0.0072(9) 0.0022(11) 0.0040(9)
N1 0.0225(11) 0.0230(10) 0.0223(11) 0.0111(9) 0.0054(9) 0.0010(8)
Cu1 0.0234(3) 0.0169(2) 0.0211(3) 0.00708(19) 0.0026(2) -0.00009(19)
Cl1 0.0259(4) 0.0231(3) 0.0287(4) 0.0114(3) 0.0007(3) 0.0023(3)
C1A 0.0216 0.0177 0.0242 0.0086 0 0.0045
C2A 0.021 0.0182 0.0224 0.0097 -0.0001 0.0023
C3A 0.0291 0.0203 0.0237 0.0098 0.0022 0.006
C4A 0.0242 0.0288 0.0306 0.0167 0.0042 0.0019
C5A 0.0344 0.0193 0.0309 0.013 0.0008 -0.0027
C6A 0.0372 0.0176 0.028 0.0079 0.0016 0.0048
C7A 0.0244 0.0249 0.0267 0.0118 0.005 0.0046
C8A 0.0258 0.0159 0.0255 0.0083 0.0051 0.0057
C9A 0.0271 0.021 0.024 0.0076 0.0008 0.0011
C10A 0.0402 0.0318 0.0256 0.0109 0.002 0.0036
C11A 0.0427 0.0302 0.0283 0.0145 0.0128 0.0039
C12A 0.0252 0.0246 0.033 0.0104 0.0092 0.0034
C13A 0.0247 0.0193 0.0237 0.0072 0.0022 0.004
N1A 0.0225 0.023 0.0223 0.0111 0.0054 0.001
Cl1A 0.0259 0.0231 0.0287 0.0114 0.0007 0.0023

#END



#######################################################################
#
#                 Cambridge Crystallographic Data Centre
#                                CCDC 
#
#######################################################################
#
# If this CIF has been generated from an entry in the Cambridge 
# Structural Database, then it will include bibliographic, chemical, 
# crystal, experimental, refinement or atomic coordinate data resulting 
# from the CCDC's data processing and validation procedures.
#
#######################################################################

data_OJIGOG
_symmetry_cell_setting           triclinic
_symmetry_space_group_name_H-M   'P -1'
_symmetry_Int_Tables_number      2
_space_group_name_Hall           '-P 1'
loop_
_symmetry_equiv_pos_site_id
_symmetry_equiv_pos_as_xyz
1 x,y,z
2 -x,-y,-z
_cell_length_a                   5.2513(8)
_cell_length_b                   9.5848(13)
_cell_length_c                   12.2752(18)
_cell_angle_alpha                111.548(11)
_cell_angle_beta                 91.115(12)
_cell_angle_gamma                99.923(11)
_cell_volume                     563.752
loop_
_atom_site_label
_atom_site_type_symbol
_atom_site_fract_x
_atom_site_fract_y
_atom_site_fract_z
_atom_site_U_iso_or_equiv
_atom_site_thermal_displace_type
C1 C 0.2476(4) 0.1872(2) 0.3354(2) 0.0209 Uani
C2 C 0.0709(4) 0.0384(2) 0.3135(2) 0.0202 Uani
C3 C -0.1469(5) 0.0318(2) 0.3756(2) 0.0238 Uani
H1 H -0.188971 0.123227 0.429660 0.0290 Uiso
C4 C -0.3025(5) -0.1084(2) 0.3583(2) 0.0267 Uani
H2 H -0.452393 -0.112598 0.399912 0.0320 Uiso
C5 C -0.2406(5) -0.2422(2) 0.2807(2) 0.0282 Uani
H3 H -0.347179 -0.338039 0.269548 0.0340 Uiso
C6 C -0.0240(5) -0.2362(2) 0.2196(2) 0.0279 Uani
H4 H 0.019521 -0.328201 0.167136 0.0330 Uiso
C7 C 0.1301(5) -0.0970(2) 0.2344(2) 0.0247 Uani
H5 H 0.276641 -0.093513 0.190588 0.0300 Uiso
C8 C 0.3828(5) 0.2139(2) 0.2376(2) 0.0220 Uani
C9 C 0.2542(5) 0.1582(2) 0.1248(2) 0.0248 Uani
H6 H 0.086654 0.094964 0.108877 0.0300 Uiso
C10 C 0.3712(5) 0.1953(3) 0.0364(2) 0.0329 Uani
H7 H 0.282843 0.157918 -0.040053 0.0400 Uiso
C11 C 0.6151(5) 0.2862(3) 0.0585(2) 0.0330 Uani
H8 H 0.692518 0.313158 -0.002074 0.0400 Uiso
C12 C 0.7472(5) 0.3381(2) 0.1687(2) 0.0278 Uani
H9 H 0.917070 0.398549 0.183286 0.0330 Uiso
C13 C 0.6320(5) 0.3020(2) 0.2581(2) 0.0229 Uani
H10 H 0.723412 0.337659 0.333705 0.0270 Uiso
N1 N 0.2859(4) 0.2943(2) 0.43818(18) 0.0222 Uani
Cu1 Cu 0.500000 0.500000 0.500000 0.0210 Uani
Cl1 Cl 0.22967(11) 0.58487(6) 0.40117(5) 0.0258 Uani
H11 H 0.201(5) 0.272(3) 0.489(2) 0.0300 Uiso
loop_
_atom_site_aniso_label
_atom_site_aniso_U_11
_atom_site_aniso_U_22
_atom_site_aniso_U_33
_atom_site_aniso_U_23
_atom_site_aniso_U_13
_atom_site_aniso_U_12
C1 0.0216(13) 0.0177(10) 0.0242(12) 0.0086(9) 0.0000(11) 0.0045(9)
C2 0.0210(12) 0.0182(10) 0.0224(12) 0.0097(9) -0.0001(11) 0.0023(9)
C3 0.0291(14) 0.0203(10) 0.0237(13) 0.0098(10) 0.0022(11) 0.0060(10)
C4 0.0242(13) 0.0288(12) 0.0306(14) 0.0167(11) 0.0042(11) 0.0019(10)
C5 0.0344(15) 0.0193(11) 0.0309(14) 0.0130(10) 0.0008(12) -0.0027(10)
C6 0.0372(15) 0.0176(11) 0.0280(13) 0.0079(10) 0.0016(12) 0.0048(10)
C7 0.0244(13) 0.0249(11) 0.0267(13) 0.0118(10) 0.0050(11) 0.0046(10)
C8 0.0258(13) 0.0159(10) 0.0255(13) 0.0083(9) 0.0051(11) 0.0057(9)
C9 0.0271(14) 0.0210(11) 0.0240(13) 0.0076(10) 0.0008(11) 0.0011(10)
C10 0.0402(16) 0.0318(13) 0.0256(14) 0.0109(11) 0.0020(12) 0.0036(12)
C11 0.0427(17) 0.0302(12) 0.0283(14) 0.0145(11) 0.0128(13) 0.0039(12)
C12 0.0252(14) 0.0246(11) 0.0330(14) 0.0104(11) 0.0092(12) 0.0034(10)
C13 0.0247(13) 0.0193(10) 0.0237(13) 0.0072(9) 0.0022(11) 0.0040(9)
N1 0.0225(11) 0.0230(10) 0.0223(11) 0.0111(9) 0.0054(9) 0.0010(8)
Cu1 0.0234(3) 0.0169(2) 0.0211(3) 0.00708(19) 0.0026(2) -0.00009(19)
Cl1 0.0259(4) 0.0231(3) 0.0287(4) 0.0114(3) 0.0007(3) 0.0023(3)

#END
